Lines_R.txt
New Line.LINE1 Bus1=2 Bus2=3 phases=3 Linecode=D2 Length=0.0385 Units=km
New Line.LINE2 Bus1=3 Bus2=4 phases=3 Linecode=D2 Length=0.0385 Units=km
New Line.LINE3 Bus1=4 Bus2=5 phases=3 Linecode=D2 Length=0.0385 Units=km
New Line.LINE4 Bus1=5 Bus2=6 phases=3 Linecode=D2 Length=0.0385 Units=km
New Line.LINE5 Bus1=6 Bus2=7 phases=3 Linecode=D2 Length=0.0385 Units=km
New Line.LINE6 Bus1=7 Bus2=8 phases=3 Linecode=D2 Length=0.0385 Units=km
New Line.LINE7 Bus1=8 Bus2=9 phases=3 Linecode=D2 Length=0.0385 Units=km
New Line.LINE8 Bus1=9 Bus2=10 phases=3 Linecode=D2 Length=0.0385 Units=km
New Line.LINE9 Bus1=10 Bus2=11 phases=3 Linecode=D2 Length=0.0385 Units=km
New Line.LINE10 Bus1=11 Bus2=12 phases=3 Linecode=D2 Length=0.0385 Units=km
New Line.LINE11 Bus1=12 Bus2=13 phases=3 Linecode=D2 Length=0.0385 Units=km
New Line.LINE12 Bus1=13 Bus2=14 phases=3 Linecode=D2 Length=0.0385 Units=km
New Line.LINE13 Bus1=14 Bus2=15 phases=3 Linecode=D2 Length=0.0385 Units=km
New Line.LINE14 Bus1=15 Bus2=16 phases=3 Linecode=D2 Length=0.0385 Units=km
New Line.LINE15 Bus1=16 Bus2=17 phases=3 Linecode=D2 Length=0.0385 Units=km
New Line.LINE16 Bus1=17 Bus2=18 phases=3 Linecode=D2 Length=0.0385 Units=km
New Line.LINE17 Bus1=18 Bus2=19 phases=3 Linecode=D2 Length=0.0385 Units=km
New Line.LINE18 Bus1=19 Bus2=20 phases=3 Linecode=D2 Length=0.0385 Units=km
New Line.LINE19 Bus1=20 Bus2=21 phases=3 Linecode=D2 Length=0.0385 Units=km
New Line.LINE20 Bus1=21 Bus2=22 phases=3 Linecode=D2 Length=0.0385 Units=km
